[General]
network = final_project.Network
sim-time-limit = 100h
**.cashier.rate = ${1,1.1,1.2,1.3,1.4,1.5,1.6,1.7,1.8,1.9,2}
**.kitchen.rate = 0.2
**.customerSpawn.rate = 1
**.customerSpawn.pVip = 0.1
**.customerSpawn.pCompound = 0.1
**.kitchen.queueType = "fifo"

[Config Const]
**.randFunc = "const"

[Config Exp]
**.randFunc = "exp"

