[General]
network = final_project.Network
sim-time-limit = 100h
**.cashier.rate = 1.5
**.kitchen.rate = 0.5
**.customerSpawn.normalRate = 1
**.customerSpawn.vipRate = 0.1
**.customerSpawn.pCompound = 0.1
**.kitchen.queueType = "fifo"
num-rngs = 5
**.customerSpawn.rngIdxCompound = 0
**.customerSpawn.rngIdxVip = 1
**.customerSpawn.rngIdxNormal = 2
**.cashier.rngIdx = 3
**.kitchen.rngIdx = 4

[Config Const]
**.randFunc = "const"
**.customerSpawn.vipOffset = -0.1

[Config Exp]
**.randFunc = "exp"

[Config Test1NormalSimple]
**.randFunc = "const"
**.customerSpawn.normalRate = 1
**.customerSpawn.vipRate = 0.0
**.customerSpawn.pCompound = 0.0


[Config Test1NormalCompound]
**.randFunc = "const"
**.customerSpawn.normalRate = 1
**.customerSpawn.vipRate = 0
**.customerSpawn.pCompound = 1

[Config Test1VipSimple]
**.randFunc = "const"
**.customerSpawn.normalRate = 0
**.customerSpawn.vipRate = 0.1
**.customerSpawn.pCompound = 0

[Config Test1VipCompound]
**.randFunc = "const"
**.customerSpawn.normalRate = 0
**.customerSpawn.vipRate = 0.1
**.customerSpawn.pCompound = 1


[Config Test2]
**.randFunc = "const"
**.customerSpawn.normalRate = 1
**.customerSpawn.vipRate = 0
**.customerSpawn.pCompound = 0.1


[Config Test3]
**.randFunc = "const"
**.customerSpawn.normalRate = 1
**.customerSpawn.vipRate = 0.5
**.customerSpawn.pCompound = 0
**.customerSpawn.vipOffset = 0.5
**.cashier.rate = 0.5


[Config Test3bFifo]
**.randFunc = "const"
**.customerSpawn.normalRate = 1
**.customerSpawn.vipRate = 0.5
**.customerSpawn.pCompound = 1
**.customerSpawn.vipOffset = 0.5
**.cashier.rate = 0.5
**.kitchen.queueType = "fifo"


[Config Test3bPrio]
**.randFunc = "const"
**.customerSpawn.normalRate = 1
**.customerSpawn.vipRate = 0.5
**.customerSpawn.pCompound = 1
**.customerSpawn.vipOffset = 0.5
**.cashier.rate = 0.5
**.kitchen.queueType = "priority"


[Config Test4aArrivalRate1]
**.randFunc = "exp"
**.customerSpawn.normalRate = 1
**.customerSpawn.vipRate = 0
**.customerSpawn.pCompound = 0


[Config Test4aArrivalRate2]
**.randFunc = "exp"
**.customerSpawn.normalRate = 0.75
**.customerSpawn.vipRate = 0.25
**.customerSpawn.pCompound = 0


[Config Test4aArrivalRate3]
**.randFunc = "exp"
**.customerSpawn.normalRate = 0.5
**.customerSpawn.vipRate = 0.5
**.customerSpawn.pCompound = 0


[Config Test4aArrivalRate4]
**.randFunc = "exp"
**.customerSpawn.normalRate = 0.25
**.customerSpawn.vipRate = 0.75
**.customerSpawn.pCompound = 0


[Config Test4aArrivalRate5]
**.randFunc = "exp"
**.customerSpawn.normalRate = 0
**.customerSpawn.vipRate = 1
**.customerSpawn.pCompound = 0


[Config Test4aServiceRate1]
**.randFunc = "exp"
**.customerSpawn.pCompound = 0
**.cashier.rate = 1.1


[Config Test4aServiceRate2]
**.randFunc = "exp"
**.customerSpawn.pCompound = 0
**.cashier.rate = 1.2


[Config Test4aServiceRate3]
**.randFunc = "exp"
**.customerSpawn.pCompound = 0
**.cashier.rate = 1.3


[Config Test4aServiceRate4]
**.randFunc = "exp"
**.customerSpawn.pCompound = 0
**.cashier.rate = 1.4


[Config Test4aServiceRate5]
**.randFunc = "exp"
**.customerSpawn.pCompound = 0
**.cashier.rate = 1.5


[Config Test4aServiceRate6]
**.randFunc = "exp"
**.customerSpawn.pCompound = 0
**.cashier.rate = 1.6


[Config Test4aServiceRate7]
**.randFunc = "exp"
**.customerSpawn.pCompound = 0
**.cashier.rate = 1.7


[Config Test4aServiceRate8]
**.randFunc = "exp"
**.customerSpawn.pCompound = 0
**.cashier.rate = 1.8


[Config Test4aServiceRate9]
**.randFunc = "exp"
**.customerSpawn.pCompound = 0
**.cashier.rate = 1.9


[Config Test4aServiceRate10]
**.randFunc = "exp"
**.customerSpawn.pCompound = 0
**.cashier.rate = 2.0






