[General]
network = final_project.Network
sim-time-limit = 100h
**.cashier.rate = ${1,2,3,4,5}
**.kitchen.rate = 0.1
**.customerSpawn.rate = 0.7
**.customerSpawn.pVip = 0.1
**.customerSpawn.pCompound = 0.1

[Config Const]
**.randFunc = "const"

[Config Exp]
**.randFunc = "exp"

