[General]
network = final_project.Network
sim-time-limit = 100h
**.cashier.rate = 1.5
**.kitchen.rate = 0.5
**.customerSpawn.normalRate = 1
**.customerSpawn.vipRate = 0.1
**.customerSpawn.vipOffset = -0.1
**.customerSpawn.pCompound = 0.1
**.kitchen.queueType = "fifo"

[Config Const]
**.randFunc = "const"

[Config Exp]
**.randFunc = "exp"

