[General]
network = final_project.Network
sim-time-limit = 100h
**.cashier.rate = 1.5
**.kitchen.rate = 0.5
**.customerSpawn.normalRate = 1
**.customerSpawn.vipRate = 0.1
**.customerSpawn.pCompound = 0.1
**.kitchen.queueType = "fifo"
num-rngs = 5
**.customerSpawn.rngIdxCompound = 0
**.customerSpawn.rngIdxVip = 1
**.customerSpawn.rngIdxNormal = 2
**.cashier.rngIdx = 3
**.kitchen.rngIdx = 4

[Config Const]
**.randFunc = "const"
**.customerSpawn.vipOffset = -0.1

[Config Exp]
**.randFunc = "exp"

[Config Test1]
**.randFunc = "const"
**.cashier.rate = 1
**.customerSpawn.normalRate = 3
**.customerSpawn.vipRate = 0
**.customerSpawn.pCompound = 0
**.kitchen.queueType = "fifo"

[Config Test2]
**.randFunc = "exp"
**.cashier.rate = 1
**.customerSpawn.normalRate = 0.5
**.customerSpawn.vipRate = 0
**.customerSpawn.pCompound = 0
**.kitchen.queueType = "fifo"