[General]
network = final_project.Network
sim-time-limit = 100h
num-rngs = 5
**.customerSpawn.rngIdxCompound = 0
**.customerSpawn.rngIdxVip = 1
**.customerSpawn.rngIdxNormal = 2
**.cashier.rngIdx = 3
**.kitchen.rngIdx = 4

[Config Const]
**.randFunc = "const"
**.customerSpawn.vipOffset = -0.1
**.cashier.rate = 1.5
**.kitchen.rate = 0.5
**.customerSpawn.normalRate = 1
**.customerSpawn.vipRate = 0.1

[Config Exp]
**.randFunc = "exp"
**.cashier.rate = 1.5
**.kitchen.rate = 0.5
**.customerSpawn.normalRate = 1
**.customerSpawn.vipRate = 0.1

[Config Test1NormalSimple]
**.randFunc = "const"
**.customerSpawn.normalRate = 1
**.customerSpawn.vipRate = 0.0
**.customerSpawn.pCompound = 0.0
**.cashier.rate = 1.5
**.kitchen.rate = 0.5

[Config Test1NormalCompound]
**.randFunc = "const"
**.customerSpawn.normalRate = 1
**.customerSpawn.vipRate = 0
**.customerSpawn.pCompound = 1
**.cashier.rate = 1.5
**.kitchen.rate = 0.5

[Config Test1VipSimple]
**.randFunc = "const"
**.customerSpawn.normalRate = 0
**.customerSpawn.vipRate = 0.1
**.customerSpawn.pCompound = 0
**.cashier.rate = 1.5
**.kitchen.rate = 0.5

[Config Test1VipCompound]
**.randFunc = "const"
**.customerSpawn.normalRate = 0
**.customerSpawn.vipRate = 0.1
**.customerSpawn.pCompound = 1
**.cashier.rate = 1.5
**.kitchen.rate = 0.5

[Config Test2]
**.randFunc = "const"
**.customerSpawn.normalRate = 1
**.customerSpawn.vipRate = 0
**.customerSpawn.pCompound = 0.1
**.cashier.rate = 1.5
**.kitchen.rate = 0.5

[Config Test3]
**.randFunc = "const"
**.customerSpawn.normalRate = 1
**.customerSpawn.vipRate = 0.5
**.customerSpawn.pCompound = 0
**.customerSpawn.vipOffset = 0.5
**.cashier.rate = 0.5


[Config Test3b]
**.randFunc = "const"
**.customerSpawn.normalRate = 1
**.customerSpawn.vipRate = 0.5
**.customerSpawn.pCompound = 1
**.customerSpawn.vipOffset = 0.5
**.cashier.rate = 0.5
**.kitchen.queueType = ${"fifo", "priority"}

[Config Test4]
**.randFunc = "exp"
**.customerSpawn.normalRate = ${nr = 0..1 step 0.25}
**.customerSpawn.vipRate = ${vr = 1-($nr)}
**.customerSpawn.pCompound = 0
**.cashier.rate = ${1.1..2 step 0.1}
**.kitchen.queueType = "fifo"

[Config Test4b]
**.randFunc = "exp"
**.customerSpawn.normalRate = ${nr = 0..1 step 0.25}
**.customerSpawn.vipRate = ${vr = 1-($nr)}
**.customerSpawn.pCompound = 0.1
**.kitchen.rate = ${0.15..0.5 step 0.05}
**.cashier.rate = 1.5
**.kitchen.queueType = ${"fifo", "priority"}

