[General]
network = final_project.Network
warmup-period = 50000s
sim-time-limit = 500000s
num-rngs = 5
**.customerSpawn.rngIdxCompound = 0
**.customerSpawn.rngIdxVip = 1
**.customerSpawn.rngIdxNormal = 2
**.cashier.rngIdx = 3
**.kitchen.rngIdx = 4

[Config Const]
**.randFunc = "const"
**.customerSpawn.vipOffset = -0.1
**.cashier.rate = 1.5
**.kitchen.rate = 0.5
**.customerSpawn.normalRate = 1
**.customerSpawn.vipRate = 0.1

[Config Exp]
**.randFunc = "exp"
**.cashier.rate = 1.5
**.kitchen.rate = 0.5
**.customerSpawn.normalRate = 1
**.customerSpawn.vipRate = 0.1

[Config Test1NormalSimple]
**.randFunc = "const"
**.customerSpawn.normalRate = 1
**.customerSpawn.vipRate = 0.0
**.customerSpawn.pCompound = 0.0
**.cashier.rate = 1.5
**.kitchen.rate = 0.5

[Config Test1NormalCompound]
**.randFunc = "const"
**.customerSpawn.normalRate = 1
**.customerSpawn.vipRate = 0
**.customerSpawn.pCompound = 1
**.cashier.rate = 1.5
**.kitchen.rate = 0.5

[Config Test1VipSimple]
**.randFunc = "const"
**.customerSpawn.normalRate = 0
**.customerSpawn.vipRate = 0.1
**.customerSpawn.pCompound = 0
**.cashier.rate = 1.5
**.kitchen.rate = 0.5

[Config Test1VipCompound]
**.randFunc = "const"
**.customerSpawn.normalRate = 0
**.customerSpawn.vipRate = 0.1
**.customerSpawn.pCompound = 1
**.cashier.rate = 1.5
**.kitchen.rate = 0.5

[Config Test2]
**.randFunc = "const"
**.customerSpawn.normalRate = 1
**.customerSpawn.vipRate = 0
**.customerSpawn.pCompound = 0.1
**.cashier.rate = 1.5
**.kitchen.rate = 0.5

[Config Test3]
**.randFunc = "const"
**.customerSpawn.normalRate = 1
**.customerSpawn.vipRate = 0.5
**.customerSpawn.pCompound = 0
**.customerSpawn.vipOffset = 0.5
**.cashier.rate = 0.5


[Config Test3b]
**.randFunc = "const"
**.customerSpawn.normalRate = 1
**.customerSpawn.vipRate = 0.5
**.customerSpawn.pCompound = 1
**.customerSpawn.vipOffset = 0.5
**.cashier.rate = 0.5
**.kitchen.queueType = ${"fifo", "priority"}

[Config Test4]
**.randFunc = "exp"
**.customerSpawn.normalRate = ${nr = 0..1 step 0.25}
**.customerSpawn.vipRate = ${vr = 1-($nr)}
**.customerSpawn.pCompound = 0
**.cashier.rate = ${1.1..2 step 0.1}
**.kitchen.queueType = "fifo"

[Config Test4b]
**.randFunc = "exp"
**.customerSpawn.normalRate = ${nr = 0..1 step 0.25}
**.customerSpawn.vipRate = ${vr = 1-($nr)}
**.customerSpawn.pCompound = 0.1
**.kitchen.rate = ${0.15..0.5 step 0.05}
**.cashier.rate = 1.5
**.kitchen.queueType = ${"fifo", "priority"}


[Config serviceRatioCashierFifo]
repeat= 30
**.randFunc = "exp"
**.customerSpawn.normalRate = 1
**.customerSpawn.vipRate = 0.1
**.customerSpawn.pCompound = 0.1
**.kitchen.rate = 0.3
**.cashier.rate = ${nr = 1.4..1.8 step 0.02}
**.kitchen.queueType = "fifo"


[Config serviceRatioCashierPrio]
repeat= 30
**.randFunc = "exp"
**.customerSpawn.normalRate = 1
**.customerSpawn.vipRate = 0.2
**.customerSpawn.pCompound = 0.2
**.kitchen.rate = 0.3
**.cashier.rate = ${nr = 1.4..1.8 step 0.02}
**.kitchen.queueType = "priority"


[Config FactorialAnalysisFifo]
repeat = 5
**.randFunc = "exp"
**.customerSpawn.normalRate = ${nr = 0.1, 1.2}
**.customerSpawn.vipRate = ${vr = 1.3 -($nr)}
**.customerSpawn.pCompound = ${0.1, 0.3}
**.kitchen.rate = ${0.45 , 0.6}
**.cashier.rate = ${1.5, 2.0}
**.kitchen.queueType = "fifo"


[Config FactorialAnalysisPriority]
repeat = 5
**.randFunc = "exp"
**.customerSpawn.normalRate = ${nr = 0.1, 1.2}
**.customerSpawn.vipRate = ${vr = 1.3 -($nr)}
**.customerSpawn.pCompound = ${0.1, 0.3}
**.kitchen.rate = ${0.45 , 0.6}
**.cashier.rate = ${1.5, 2.0}
**.kitchen.queueType = "priority"

[Config FullFactorialAnalysisFifoVipProb]
repeat = 30
**.randFunc = "exp"
**.customerSpawn.normalRate = ${nr = 0.1..1.3 step 0.1}
**.customerSpawn.vipRate = ${vr = 1.4 -($nr)}
**.customerSpawn.pCompound = 0.1
**.kitchen.rate = 0.15
**.cashier.rate = 1.5
**.kitchen.queueType = "fifo"

[Config FullFactorialAnalysisFifoUserRate]
repeat = 30
**.randFunc = "exp"
**.customerSpawn.normalRate = ${nr = 0.1..1.1 step 0.1}
**.customerSpawn.vipRate = ${vr = (0.3 * $nr)}
**.customerSpawn.pCompound = 0.1
**.kitchen.rate = 0.15
**.cashier.rate = 1.5
**.kitchen.queueType = "fifo"

[Config FifoCompareQueue]
repeat = 30
**.randFunc = "exp"
**.customerSpawn.normalRate = 1
**.customerSpawn.vipRate = 0.2
**.customerSpawn.pCompound = ${0.1..0.3 step 0.02}
**.kitchen.rate = 0.45
**.cashier.rate = 1.5
**.kitchen.queueType = "fifo"

[Config PiorityCompareQueue]
repeat = 30
**.randFunc = "exp"
**.customerSpawn.normalRate = 1
**.customerSpawn.vipRate = 0.2
**.customerSpawn.pCompound = ${0.1..0.3 step 0.02}
**.kitchen.rate = 0.45
**.cashier.rate = 1.5
**.kitchen.queueType = "priority"

[Config WorkingDay]
warmup-period = 0s
sim-time-limit = 1080s
**.randFunc = "working-day"
**.customerSpawn.normalRate = 1
**.customerSpawn.vipRate = 0.2
**.cashier.rate = 1.5
**.kitchen.rate = 0.5
